6

Mo      -0.00000000       2.03227295       3.49250000
Mo       1.76000000       1.01613647      10.47750000
Te      -0.00000000       2.03227295      12.27264500
Te       1.76000000       1.01613647       5.28764500
Te       1.76000000       1.01613647       1.69735500
Te      -0.00000000       2.03227295       8.68235500
VEC1       3.52000000       0.00000000       0.00000000 
VEC2      -1.76000000       3.04840942       0.00000000 
