4

C       0.00000000       0.00000000       5.03250000
C       0.00000000       0.00000000       1.67750000
C       1.23000000       0.71014083       5.03250000
C       0.00000000       1.42028166       1.67750000
VEC1       2.46000000       0.00000000       0.00000000 
VEC2      -1.23000000       2.13042249       0.00000000 
