3

Hf       0.00000000       0.00000000       0.00000000
S       1.82168293       1.05174913       1.44495267
S      -0.00000000       2.10349826       5.13950510
VEC1       3.64336586       0.00000000       0.00000000 
VEC2      -1.82168293       3.15524739       0.00000000 
VEC3       0.00000000       0.00000000       6.58445777 
