3

Ti       0.00000000       0.00000000       0.00000000
Se       0.00000000       1.97947310       1.42162043
Se       1.71427399       0.98973655       4.47286591
VEC1       3.42854798       0.00000000       0.00000000 
VEC2      -1.71427399       2.96920965       0.00000000 
VEC3       0.00000000       0.00000000       5.89448634 
