6

S      -1.84545996       1.06547680     -14.67930591
Zr       0.00000000       0.00000000     -13.22226518
S       1.84545996      -1.06547680      -5.15409186
Zr       0.00000000       0.00000000      -6.61113259
S      -1.84545996       1.06547680      -8.06817332
S       1.84545996      -1.06547680     -11.76522445
VEC1       3.69091991       0.00000000       0.00000000 
VEC2      -1.84545996       3.19643041       0.00000000 
