3

Zr       0.00000000       0.00000000       0.00000000
Se       1.90234226       1.09831782       1.59257381
Se       0.00000000       2.19663563       5.09433308
VEC1       3.80468452       0.00000000       0.00000000 
VEC2      -1.90234226       3.29495345       0.00000000 
VEC3       0.00000000       0.00000000       6.68690689 
