6

Zr       0.00000000       0.00000000     -13.37381378
Se      -1.90234226       1.09831782      -5.09433308
Se       1.90234226      -1.09831782     -14.96638759
Zr       0.00000000       0.00000000      -6.68690689
Se      -1.90234226       1.09831782     -11.78123997
Se       1.90234226      -1.09831782      -8.27948070
VEC1       3.80468452       0.00000000       0.00000000 
VEC2      -1.90234226       3.29495345       0.00000000 
