3

Zr       0.00000000       0.00000000       0.00000000
Te       1.99209967       1.15013928       5.19967825
Te      -0.00000000       2.30027856       1.79588770
VEC1       3.98419934       0.00000000       0.00000000 
VEC2      -1.99209967       3.45041784       0.00000000 
VEC3       0.00000000       0.00000000       6.99556595 
