7
Properties=species:S:1:pos:R:3 pbc="F F F"
O       0.00000000       0.00000000       0.00000000 
N       0.00000000       0.00000000       1.38000000 
C       0.00000000       1.25100000       1.73400000 
C       0.00000000       2.06200000       0.56700000 
N       0.00000000       1.29400000      -0.48200000 
H       0.00000000       3.13300000       0.46800000 
H       0.00000000       1.53100000       2.77300000 
