12

C       0.00000000       0.70192000       0.87276000
C       0.00000000      -0.69884000       3.29447000
C       0.00000000      -0.70192000       0.87276000
C       0.00000000       1.39658000       2.08663000
C       0.00000000       0.69884000       3.29447000
C       0.00000000      -1.39658000       2.08663000
Cl       0.00000000       1.60934000      -0.62331000
Cl       0.00000000      -1.60934000      -0.62331000
H       0.00000000      -2.48582000       2.06681000
H       0.00000000      -1.25186000       4.23358000
H       0.00000000       1.25186000       4.23358000
H       0.00000000       2.48582000       2.06681000
