6

Hf       0.00000000       0.00000000     -13.85703720
Se      -1.88676921       1.08932671     -15.43219433
Se       1.88676921      -1.08932671      -5.35336147
Hf       0.00000000       0.00000000      -6.92851860
Se      -1.88676921       1.08932671      -8.50367573
Se       1.88676921      -1.08932671     -12.28188007
VEC1       3.77354220       0.00000000       0.00000000 
VEC2      -1.88677110       3.26798341       0.00000000 
