24

P       2.22126378       2.57045559     -21.29741218
Pd       0.00000000      -0.00000000     -13.89590000
Pd       0.08116975       2.93277000     -23.90761803
P      -2.14009403      -0.36231441     -16.50610586
P      -2.14009403      -0.76246154     -14.34946218
Pd       0.08116975       1.80799405     -20.84385000
Pd       0.00000000      -1.12477595     -16.95966803
P       2.22126378       2.17030846     -23.45405586
Pd      -2.83441025       1.80799405     -16.95966803
S      -0.61938582       0.66814366     -24.55155404
S      -2.21502444      -2.26462634     -24.55155404
Pd       2.91558000      -1.12477595     -20.84385000
Pd       2.91558000      -0.00000000     -23.90761803
S       0.70055556       1.13985039     -17.60360404
S      -0.61938582      -1.79291961     -20.19991399
Pd      -2.83441025       2.93277000     -13.89590000
P       0.77548597      -0.76246154     -23.45405586
S       0.70055556      -2.26462634     -13.25196399
S      -2.21502444       1.13985039     -20.19991399
P      -0.69431622       2.17030846     -14.34946218
P      -0.69431622       2.57045559     -16.50610586
S       2.29619418      -1.79291961     -17.60360404
S       2.29619418       0.66814366     -13.25196399
P       0.77548597      -0.36231441     -21.29741218
VEC1       5.83116000       0.00000000       0.00000000 
VEC2       0.00000000       5.86554000       0.00000000 
